@<TRIPOS>MOLECULE
*****
  186   200     1     0     0
SMALL
dc


@<TRIPOS>ATOM
      1 C           -1.4900    -2.6830     0.2150 ca         1 UNL       0.000000
      2 C1          -0.6280    -1.6750    -0.2410 ca         1 UNL       0.000000
      3 C2           0.7590    -1.9060    -0.3510 ca         1 UNL       0.000000
      4 H           -1.0430    -0.7130    -0.4820 ha         1 UNL       0.000000
      5 C3           1.2520    -3.1620    -0.0070 ca         1 UNL       0.000000
      6 H1           1.4270    -1.1200    -0.6730 ha         1 UNL       0.000000
      7 C4           0.3740    -4.1690     0.3600 ca         1 UNL       0.000000
      8 C5          -0.9880    -3.9360     0.5100 ca         1 UNL       0.000000
      9 H2          -1.6610    -4.6910     0.8760 ha         1 UNL       0.000000
     10 H3          -2.5480    -2.5120     0.3430 ha         1 UNL       0.000000
     11 C6           1.0690    -5.4210     0.5880 cc         1 UNL       0.000000
     12 C7           2.5270    -5.0740     0.5290 cc         1 UNL       0.000000
     13 C8           2.6330    -3.6670     0.0640 c          1 UNL       0.000000
     14 O            3.6500    -3.0200    -0.1510 o          1 UNL       0.000000
     15 C9           0.4760    -6.6890     0.6150 cf         1 UNL       0.000000
     16 C10         -0.8670    -6.8540     0.1850 ch         1 UNL       0.000000
     17 C11          1.0520    -8.0040     0.8960 ch         1 UNL       0.000000
     18 N           -1.9590    -6.9760    -0.1670 n1         1 UNL       0.000000
     19 N1           1.5050    -9.0480     1.1190 n1         1 UNL       0.000000
     20 C12          3.3560    -6.0850     0.7000 cf         1 UNL       0.000000
     21 C13          4.6700    -6.6300     0.6490 cd         1 UNL       0.000000
     22 H4           2.8410    -6.7910     1.2010 ha         1 UNL       0.000000
     23 S            6.0980    -5.7610     0.5040 ss         1 UNL       0.000000
     24 C14          7.0400    -6.9340     1.2540 cd         1 UNL       0.000000
     25 C15          6.2380    -8.0740     1.3610 cc         1 UNL       0.000000
     26 C16          4.8710    -7.9430     1.0910 cc         1 UNL       0.000000
     27 H5           4.0260    -8.6070     1.4290 ha         1 UNL       0.000000
     28 C17          8.2880    -6.9320     2.0990 cd         1 UNL       0.000000
     29 S1           7.0590    -9.2140     2.2220 ss         1 UNL       0.000000
     30 C18          8.4280    -8.2670     2.5910 cc         1 UNL       0.000000
     31 C19          9.3320    -5.8220     2.9240 c3         1 UNL       0.000000
     32 C20         10.2610    -7.1820     3.3660 ca         1 UNL       0.000000
     33 C21          9.7360    -8.5090     3.2590 ca         1 UNL       0.000000
     34 C22         10.3120    -4.4080     3.3890 ca         1 UNL       0.000000
     35 C23          8.0300    -4.8230     3.1620 ca         1 UNL       0.000000
     36 C24          7.9850    -3.5660     2.4320 ca         1 UNL       0.000000
     37 C25          6.9270    -2.6420     2.4640 ca         1 UNL       0.000000
     38 C26          5.7550    -2.8860     3.1800 ca         1 UNL       0.000000
     39 C27          5.8080    -4.0150     4.0560 ca         1 UNL       0.000000
     40 C28         11.3710    -3.7530     2.6240 ca         1 UNL       0.000000
     41 C29         11.9140    -2.3980     2.8900 ca         1 UNL       0.000000
     42 C30         11.4910    -1.5260     3.9350 ca         1 UNL       0.000000
     43 C31         10.5780    -2.1620     4.7920 ca         1 UNL       0.000000
     44 C32         10.0280    -3.5130     4.5650 ca         1 UNL       0.000000
     45 C33          6.9220    -4.9520     4.0620 ca         1 UNL       0.000000
     46 H6          11.7780    -4.2160     1.7420 ha         1 UNL       0.000000
     47 H7           4.9630    -4.2190     4.6930 ha         1 UNL       0.000000
     48 H8           6.8880    -5.7910     4.7430 ha         1 UNL       0.000000
     49 H9           7.0120    -1.7390     1.8640 ha         1 UNL       0.000000
     50 H10          8.8120    -3.2480     1.8080 ha         1 UNL       0.000000
     51 H11         12.6580    -1.9640     2.2330 ha         1 UNL       0.000000
     52 H12         10.2520    -1.5310     5.6190 ha         1 UNL       0.000000
     53 H13          9.2840    -3.7520     5.3180 ha         1 UNL       0.000000
     54 C34          4.4680    -2.0340     2.7820 c3         1 UNL       0.000000
     55 C35          3.8490    -0.8490     3.5960 c3         1 UNL       0.000000
     56 H14          3.6620    -2.7510     2.5230 hc         1 UNL       0.000000
     57 H15          4.7340    -1.5540     1.8170 hc         1 UNL       0.000000
     58 C36          2.9670     0.2660     2.8570 c3         1 UNL       0.000000
     59 H16          4.7280    -0.2750     3.9450 hc         1 UNL       0.000000
     60 H17          3.2980    -1.2210     4.4840 hc         1 UNL       0.000000
     61 C37          1.4710     0.0680     2.4210 c3         1 UNL       0.000000
     62 H18          3.5150     0.6820     1.9780 hc         1 UNL       0.000000
     63 H19          2.9280     1.0920     3.5940 hc         1 UNL       0.000000
     64 C38          0.6470     1.4030     2.4870 c3         1 UNL       0.000000
     65 H20          1.4660    -0.2920     1.3870 hc         1 UNL       0.000000
     66 H21          0.9440    -0.6610     3.0680 hc         1 UNL       0.000000
     67 C39         -0.7440     1.3550     1.8250 c3         1 UNL       0.000000
     68 H22          1.1930     2.2430     2.0060 hc         1 UNL       0.000000
     69 H23          0.5000     1.6590     3.5600 hc         1 UNL       0.000000
     70 H24         -0.6480     1.2790     0.7210 hc         1 UNL       0.000000
     71 H25         -1.2980     2.3010     2.0320 hc         1 UNL       0.000000
     72 H26         -1.3630     0.5140     2.2000 hc         1 UNL       0.000000
     73 C40         11.9180     0.0620     4.0510 c3         1 UNL       0.000000
     74 C41         12.7370     0.6880     5.2680 c3         1 UNL       0.000000
     75 H27         11.0060     0.7050     3.9690 hc         1 UNL       0.000000
     76 H28         12.5280     0.3540     3.1610 hc         1 UNL       0.000000
     77 C42         13.1970     2.2200     5.1710 c3         1 UNL       0.000000
     78 H29         13.6820     0.1150     5.2910 hc         1 UNL       0.000000
     79 H30         12.2200     0.5500     6.2410 hc         1 UNL       0.000000
     80 C43         12.2120     3.3040     5.7060 c3         1 UNL       0.000000
     81 H31         13.4850     2.4620     4.1250 hc         1 UNL       0.000000
     82 H32         14.1160     2.3530     5.7890 hc         1 UNL       0.000000
     83 C44         12.6940     4.7810     5.5310 c3         1 UNL       0.000000
     84 H33         12.0030     3.1380     6.7870 hc         1 UNL       0.000000
     85 H34         11.2630     3.2060     5.1470 hc         1 UNL       0.000000
     86 C45         13.8180     5.2410     6.4740 c3         1 UNL       0.000000
     87 H35         11.8350     5.4580     5.7450 hc         1 UNL       0.000000
     88 H36         12.9990     4.9570     4.4780 hc         1 UNL       0.000000
     89 H37         13.4860     5.1820     7.5330 hc         1 UNL       0.000000
     90 H38         14.0590     6.3120     6.2690 hc         1 UNL       0.000000
     91 H39         14.7450     4.6520     6.3400 hc         1 UNL       0.000000
     92 C46         11.6740    -7.1530     3.6160 ca         1 UNL       0.000000
     93 C47         12.5240    -8.3190     3.6520 ca         1 UNL       0.000000
     94 C48         12.0200    -9.6340     3.6620 ca         1 UNL       0.000000
     95 C49         10.5570    -9.7540     3.5690 ca         1 UNL       0.000000
     96 H40         12.1550    -6.2120     3.6490 ha         1 UNL       0.000000
     97 H41         10.2500   -10.8190     3.4990 ha         1 UNL       0.000000
     98 C50         14.0160    -8.4040     3.6680 cd         1 UNL       0.000000
     99 C51         13.2140   -10.7640     3.3990 c3         1 UNL       0.000000
    100 C52         14.4270    -9.7190     3.6190 cc         1 UNL       0.000000
    101 S2          15.3780    -7.3540     3.8950 ss         1 UNL       0.000000
    102 C53         16.5080    -8.6090     4.1700 cd         1 UNL       0.000000
    103 C54         15.8630    -9.8070     4.0320 cc         1 UNL       0.000000
    104 C55         14.1770   -11.9720     3.6970 ca         1 UNL       0.000000
    105 C56         12.3770   -11.5520     2.1840 ca         1 UNL       0.000000
    106 C57         11.4020   -10.9810     1.2730 ca         1 UNL       0.000000
    107 C58         10.4020   -11.7890     0.6290 ca         1 UNL       0.000000
    108 C59         10.4080   -13.1970     0.7570 ca         1 UNL       0.000000
    109 C60         11.4350   -13.7610     1.4740 ca         1 UNL       0.000000
    110 C61         12.3310   -12.9980     2.1690 ca         1 UNL       0.000000
    111 C62         15.1100   -12.2610     2.6380 ca         1 UNL       0.000000
    112 C63         16.0540   -13.2840     2.7150 ca         1 UNL       0.000000
    113 C64         16.1240   -14.1100     3.8430 ca         1 UNL       0.000000
    114 C65         15.1710   -13.8820     4.8820 ca         1 UNL       0.000000
    115 C66         14.2040   -12.8300     4.8130 ca         1 UNL       0.000000
    116 C67         17.4010   -14.9630     4.0450 c3         1 UNL       0.000000
    117 C68         17.7340   -16.4390     3.6450 c3         1 UNL       0.000000
    118 H42         17.6220   -14.8810     5.1280 hc         1 UNL       0.000000
    119 H43         18.1800   -14.3830     3.5080 hc         1 UNL       0.000000
    120 C69         19.2430   -16.7150     4.0260 c3         1 UNL       0.000000
    121 H44         17.6000   -16.5990     2.5540 hc         1 UNL       0.000000
    122 H45         17.0740   -17.1330     4.2050 hc         1 UNL       0.000000
    123 C70         19.8260   -18.1520     3.8700 c3         1 UNL       0.000000
    124 H46         19.3660   -16.4500     5.0990 hc         1 UNL       0.000000
    125 H47         19.8810   -16.0300     3.4210 hc         1 UNL       0.000000
    126 C71         21.3130   -18.2180     4.3440 c3         1 UNL       0.000000
    127 H48         19.7750   -18.4760     2.8090 hc         1 UNL       0.000000
    128 H49         19.2320   -18.8510     4.4940 hc         1 UNL       0.000000
    129 C72         21.9400   -19.6190     4.2920 c3         1 UNL       0.000000
    130 H50         21.3840   -17.8780     5.4000 hc         1 UNL       0.000000
    131 H51         21.9410   -17.5470     3.7170 hc         1 UNL       0.000000
    132 H52         21.3910   -20.3270     4.9470 hc         1 UNL       0.000000
    133 H53         22.9920   -19.5720     4.6600 hc         1 UNL       0.000000
    134 H54         21.9640   -20.0160     3.2560 hc         1 UNL       0.000000
    135 C73          9.3870   -14.2220     0.2530 c3         1 UNL       0.000000
    136 C74          7.9310   -13.8070    -0.0130 c3         1 UNL       0.000000
    137 H55          9.2840   -14.9820     1.0670 hc         1 UNL       0.000000
    138 H56          9.8240   -14.7590    -0.6160 hc         1 UNL       0.000000
    139 C75          7.0940   -15.0690    -0.3730 c3         1 UNL       0.000000
    140 H57          7.9040   -13.0800    -0.8470 hc         1 UNL       0.000000
    141 H58          7.5010   -13.3410     0.9020 hc         1 UNL       0.000000
    142 C76          5.6400   -14.7370    -0.7430 c3         1 UNL       0.000000
    143 H59          7.0930   -15.7830     0.4840 hc         1 UNL       0.000000
    144 H60          7.5680   -15.5770    -1.2410 hc         1 UNL       0.000000
    145 C77          4.8560   -15.9900    -1.1790 c3         1 UNL       0.000000
    146 H61          5.6500   -14.0160    -1.5870 hc         1 UNL       0.000000
    147 H62          5.1300   -14.2730     0.1290 hc         1 UNL       0.000000
    148 C78          3.4310   -15.6350    -1.6110 c3         1 UNL       0.000000
    149 H63          4.8060   -16.7230    -0.3430 hc         1 UNL       0.000000
    150 H64          5.3670   -16.4740    -2.0410 hc         1 UNL       0.000000
    151 H65          2.8700   -15.1770    -0.7690 hc         1 UNL       0.000000
    152 H66          2.8940   -16.5520    -1.9360 hc         1 UNL       0.000000
    153 H67          3.4520   -14.9240    -2.4640 hc         1 UNL       0.000000
    154 H68         11.2800    -9.9080     1.1730 ha         1 UNL       0.000000
    155 H69          9.6020   -11.3120     0.0780 ha         1 UNL       0.000000
    156 H70         11.5010   -14.8370     1.5900 ha         1 UNL       0.000000
    157 H71         12.9400   -13.6520     2.7620 ha         1 UNL       0.000000
    158 H72         13.5010   -12.6750     5.6200 ha         1 UNL       0.000000
    159 H73         15.1320   -11.6240     1.7570 ha         1 UNL       0.000000
    160 H74         16.7800   -13.3660     1.9150 ha         1 UNL       0.000000
    161 H75         15.2060   -14.4880     5.7750 ha         1 UNL       0.000000
    162 S3          17.0570   -10.9950     4.4950 ss         1 UNL       0.000000
    163 C79         18.3820    -9.9730     4.8180 cc         1 UNL       0.000000
    164 C80         17.8870    -8.6660     4.5550 cd         1 UNL       0.000000
    165 H76         18.5120    -7.7920     4.6680 ha         1 UNL       0.000000
    166 C81         19.8330   -10.2070     5.2760 ce         1 UNL       0.000000
    167 C82         20.7090   -11.2650     5.4930 cd         1 UNL       0.000000
    168 H77         20.2870    -9.2510     5.4100 ha         1 UNL       0.000000
    169 C83         20.5270   -12.7260     5.3040 c          1 UNL       0.000000
    170 C84         21.8320   -13.4220     5.4310 ca         1 UNL       0.000000
    171 C85         22.7960   -12.4920     5.7390 ca         1 UNL       0.000000
    172 C86         22.2010   -11.1230     5.7730 cd         1 UNL       0.000000
    173 O1          19.4690   -13.2750     5.0960 o          1 UNL       0.000000
    174 C87         22.9480    -9.9960     5.9540 ce         1 UNL       0.000000
    175 C88         22.4420    -8.7050     6.3280 cg         1 UNL       0.000000
    176 C89         24.3690   -10.0210     5.6970 cg         1 UNL       0.000000
    177 N2          22.0760    -7.6490     6.6280 n1         1 UNL       0.000000
    178 N3          25.5050   -10.0800     5.4820 n1         1 UNL       0.000000
    179 C90         24.1050   -12.9150     6.0710 ca         1 UNL       0.000000
    180 C91         24.4510   -14.2610     5.9880 ca         1 UNL       0.000000
    181 C92         23.4960   -15.1970     5.5870 ca         1 UNL       0.000000
    182 C93         22.1730   -14.7860     5.3240 ca         1 UNL       0.000000
    183 H78         24.8710   -12.2550     6.4280 ha         1 UNL       0.000000
    184 H79         25.4600   -14.5690     6.2450 ha         1 UNL       0.000000
    185 H80         23.7880   -16.2390     5.5170 ha         1 UNL       0.000000
    186 H81         21.4480   -15.5250     5.0620 ha         1 UNL       0.000000
@<TRIPOS>BOND
     1     1     2 ar
     2     2     3 ar
     3     2     4 1
     4     3     5 ar
     5     3     6 1
     6     5     7 ar
     7     7     8 ar
     8     8     1 ar
     9     8     9 1
    10     1    10 1
    11     7    11 1
    12    11    12 1
    13    12    13 1
    14    13     5 1
    15    13    14 2
    16    11    15 2
    17    15    16 1
    18    15    17 1
    19    18    16 3
    20    19    17 3
    21    12    20 2
    22    20    21 1
    23    20    22 1
    24    21    23 1
    25    23    24 1
    26    24    25 2
    27    21    26 2
    28    26    25 1
    29    26    27 1
    30    24    28 1
    31    25    29 1
    32    29    30 1
    33    28    30 2
    34    28    31 1
    35    31    32 1
    36    30    33 1
    37    32    33 ar
    38    31    34 1
    39    31    35 1
    40    35    36 ar
    41    36    37 ar
    42    37    38 ar
    43    38    39 ar
    44    34    40 ar
    45    40    41 ar
    46    41    42 ar
    47    42    43 ar
    48    43    44 ar
    49    44    34 ar
    50    39    45 ar
    51    45    35 ar
    52    40    46 1
    53    39    47 1
    54    45    48 1
    55    37    49 1
    56    36    50 1
    57    41    51 1
    58    43    52 1
    59    44    53 1
    60    38    54 1
    61    54    55 1
    62    54    56 1
    63    54    57 1
    64    55    58 1
    65    55    59 1
    66    55    60 1
    67    58    61 1
    68    58    62 1
    69    58    63 1
    70    61    64 1
    71    61    65 1
    72    61    66 1
    73    64    67 1
    74    64    68 1
    75    64    69 1
    76    67    70 1
    77    67    71 1
    78    67    72 1
    79    42    73 1
    80    73    74 1
    81    73    75 1
    82    73    76 1
    83    74    77 1
    84    74    78 1
    85    74    79 1
    86    77    80 1
    87    77    81 1
    88    77    82 1
    89    80    83 1
    90    80    84 1
    91    80    85 1
    92    83    86 1
    93    83    87 1
    94    83    88 1
    95    86    89 1
    96    86    90 1
    97    86    91 1
    98    32    92 ar
    99    92    93 ar
   100    93    94 ar
   101    94    95 ar
   102    95    33 ar
   103    92    96 1
   104    95    97 1
   105    93    98 1
   106    94    99 1
   107    99   100 1
   108   100    98 2
   109    98   101 1
   110   101   102 1
   111   102   103 2
   112   100   103 1
   113    99   104 1
   114    99   105 1
   115   105   106 ar
   116   106   107 ar
   117   107   108 ar
   118   108   109 ar
   119   109   110 ar
   120   110   105 ar
   121   104   111 ar
   122   111   112 ar
   123   112   113 ar
   124   113   114 ar
   125   114   115 ar
   126   115   104 ar
   127   113   116 1
   128   116   117 1
   129   116   118 1
   130   116   119 1
   131   117   120 1
   132   117   121 1
   133   117   122 1
   134   120   123 1
   135   120   124 1
   136   120   125 1
   137   123   126 1
   138   123   127 1
   139   123   128 1
   140   126   129 1
   141   126   130 1
   142   126   131 1
   143   129   132 1
   144   129   133 1
   145   129   134 1
   146   108   135 1
   147   135   136 1
   148   135   137 1
   149   135   138 1
   150   136   139 1
   151   136   140 1
   152   136   141 1
   153   139   142 1
   154   139   143 1
   155   139   144 1
   156   142   145 1
   157   142   146 1
   158   142   147 1
   159   145   148 1
   160   145   149 1
   161   145   150 1
   162   148   151 1
   163   148   152 1
   164   148   153 1
   165   106   154 1
   166   107   155 1
   167   109   156 1
   168   110   157 1
   169   115   158 1
   170   111   159 1
   171   112   160 1
   172   114   161 1
   173   103   162 1
   174   162   163 1
   175   163   164 2
   176   164   102 1
   177   164   165 1
   178   163   166 1
   179   166   167 2
   180   166   168 1
   181   167   169 1
   182   169   170 1
   183   170   171 ar
   184   171   172 1
   185   172   167 1
   186   173   169 2
   187   172   174 2
   188   174   175 1
   189   174   176 1
   190   177   175 3
   191   178   176 3
   192   171   179 ar
   193   179   180 ar
   194   180   181 ar
   195   181   182 ar
   196   182   170 ar
   197   179   183 1
   198   180   184 1
   199   181   185 1
   200   182   186 1
@<TRIPOS>SUBSTRUCTURE
     1 UNL         1 TEMP              0 ****  ****    0 ROOT
