@<TRIPOS>MOLECULE
*****
  186   200     1     0     0
SMALL
dc


@<TRIPOS>ATOM
      1 C          13.781	 1.773	 0.210 ca         1 UNL       0.000000
      2 C1         13.243	 0.485	 0.206 ca         1 UNL       0.000000
      3 C2         11.865	 0.305	 0.150 ca         1 UNL       0.000000
      4 H          13.905	-0.373	 0.249 ha         1 UNL       0.000000
      5 C3         11.065	 1.434	 0.100 ca         1 UNL       0.000000
      6 H1         11.409	-0.679	 0.147 ha         1 UNL       0.000000
      7 C4         11.587	 2.731	 0.103 ca         1 UNL       0.000000
      8 C5         12.971	 2.906	 0.158 ca         1 UNL       0.000000
      9 H2         13.430	 3.885	 0.164 ha         1 UNL       0.000000
     10 H3         14.857	 1.902	 0.256 ha         1 UNL       0.000000
     11 C6         10.464	 3.705	 0.047 cc         1 UNL       0.000000
     12 C7          9.217	 2.924	 0.012 cc         1 UNL       0.000000
     13 C8          9.587	 1.489	 0.042 c          1 UNL       0.000000
     14 O           8.841	 0.528	 0.025 o          1 UNL       0.000000
     15 C9         10.612	 5.067	 0.034 cf         1 UNL       0.000000
     16 C10        11.885	 5.721	 0.069 ch         1 UNL       0.000000
     17 C11         9.521	 5.992	-0.016 ch         1 UNL       0.000000
     18 N          12.897	 6.289	 0.097 n1         1 UNL       0.000000
     19 N1          8.652	 6.761	-0.054 n1         1 UNL       0.000000
     20 C12         7.948	 3.424	-0.038 cf         1 UNL       0.000000
     21 C13         6.647	 2.837	-0.076 cd         1 UNL       0.000000
     22 H4          7.865	 4.505	-0.053 ha         1 UNL       0.000000
     23 S           6.188	 1.135	-0.076 ss         1 UNL       0.000000
     24 C14         4.522	 1.563	-0.141 cd         1 UNL       0.000000
     25 C15         4.332	 2.948	-0.161 cc         1 UNL       0.000000
     26 C16         5.531	 3.668	-0.126 cc         1 UNL       0.000000
     27 H5          5.616	 4.748	-0.136 ha         1 UNL       0.000000
     28 C17         3.297	 0.854	-0.157 cd         1 UNL       0.000000
     29 S1          2.640	 3.387	-0.213 ss         1 UNL       0.000000
     30 C18         2.224	 1.705	-0.196 cc         1 UNL       0.000000
     31 C19         2.850	-0.596	-0.167 c3         1 UNL       0.000000
     32 C20         1.326	-0.408	-0.203 ca         1 UNL       0.000000
     33 C21         0.978	 0.958	-0.210 ca         1 UNL       0.000000
     34 C22         3.417	-1.263	-1.428 ca         1 UNL       0.000000
     35 C23         3.213	-1.348	 1.120 ca         1 UNL       0.000000
     36 C24         3.183	-2.746	 1.148 ca         1 UNL       0.000000
     37 C25         3.431	-3.437	 2.327 ca         1 UNL       0.000000
     38 C26         3.716	-2.743	 3.500 ca         1 UNL       0.000000
     39 C27         3.748	-1.353	 3.481 ca         1 UNL       0.000000
     40 C28         4.725	-1.758	-1.415 ca         1 UNL       0.000000
     41 C29         5.299	-2.278	-2.569 ca         1 UNL       0.000000
     42 C30         4.574	-2.315	-3.756 ca         1 UNL       0.000000
     43 C31         3.273	-1.823	-3.778 ca         1 UNL       0.000000
     44 C32         2.700	-1.298	-2.624 ca         1 UNL       0.000000
     45 C33         3.495	-0.661	 2.300 ca         1 UNL       0.000000
     46 H6          5.295	-1.750	-0.491 ha         1 UNL       0.000000
     47 H7          3.972	-0.801	 4.388 ha         1 UNL       0.000000
     48 H8          3.516	 0.424	 2.302 ha         1 UNL       0.000000
     49 H9          3.408	-4.523	 2.328 ha         1 UNL       0.000000
     50 H10         2.981	-3.296	 0.234 ha         1 UNL       0.000000
     51 H11         6.316	-2.654	-2.538 ha         1 UNL       0.000000
     52 H12         2.699	-1.844	-4.699 ha         1 UNL       0.000000
     53 H13         1.686	-0.913	-2.657 ha         1 UNL       0.000000
     54 C34         3.999	-3.508	 4.806 c3         1 UNL       0.000000
     55 C35         5.468	-3.972	 4.822 c3         1 UNL       0.000000
     56 H14         3.819	-2.865	 5.642 hc         1 UNL       0.000000
     57 H15         3.355	-4.360	 4.867 hc         1 UNL       0.000000
     58 C36         5.733	-4.793	 6.097 c3         1 UNL       0.000000
     59 H16         6.112	-3.117	 4.807 hc         1 UNL       0.000000
     60 H17         5.660	-4.578	 3.961 hc         1 UNL       0.000000
     61 C37         7.203	-5.252	 6.115 c3         1 UNL       0.000000
     62 H18         5.538	-4.188	 6.958 hc         1 UNL       0.000000
     63 H19         5.092	-5.649	 6.110 hc         1 UNL       0.000000
     64 C38         7.448	-6.140	 7.349 c3         1 UNL       0.000000
     65 H20         7.844	-4.396	 6.159 hc         1 UNL       0.000000
     66 H21         7.414	-5.810	 5.227 hc         1 UNL       0.000000
     67 C39         8.925	-6.576	 7.383 c3         1 UNL       0.000000
     68 H22         7.218	-5.589	 8.237 hc         1 UNL       0.000000
     69 H23         6.822	-7.007	 7.295 hc         1 UNL       0.000000
     70 H24         9.550	-5.711	 7.467 hc         1 UNL       0.000000
     71 H25         9.088	-7.217	 8.224 hc         1 UNL       0.000000
     72 H26         9.163	-7.101	 6.482 hc         1 UNL       0.000000
     73 C40         5.207	-2.893	-5.036 c3         1 UNL       0.000000
     74 C41         6.498	-3.649	-4.672 c3         1 UNL       0.000000
     75 H27         4.518	-3.566	-5.501 hc         1 UNL       0.000000
     76 H28         5.438	-2.096	-5.711 hc         1 UNL       0.000000
     77 C42         7.015	-4.405	-5.910 c3         1 UNL       0.000000
     78 H29         7.240	-2.952	-4.344 hc         1 UNL       0.000000
     79 H30         6.294	-4.348	-3.888 hc         1 UNL       0.000000
     80 C43         8.345	-5.103	-5.567 c3         1 UNL       0.000000
     81 H31         7.173	-3.713	-6.711 hc         1 UNL       0.000000
     82 H32         6.295	-5.138	-6.208 hc         1 UNL       0.000000
     83 C44         8.784	-5.983	-6.752 c3         1 UNL       0.000000
     84 H33         9.095	-4.366	-5.372 hc         1 UNL       0.000000
     85 H34         8.212	-5.715	-4.699 hc         1 UNL       0.000000
     86 C45        10.142	-6.634	-6.433 c3         1 UNL       0.000000
     87 H35         8.876	-5.378	-7.630 hc         1 UNL       0.000000
     88 H36         8.053	-6.746	-6.920 hc         1 UNL       0.000000
     89 H37        10.419	-7.291	-7.231 hc         1 UNL       0.000000
     90 H38        10.886	-5.872	-6.324 hc         1 UNL       0.000000
     91 H39        10.066	-7.191	-5.522 hc         1 UNL       0.000000
     92 C46         0.348	-1.386	-0.194 ca         1 UNL       0.000000
     93 C47        -0.981	-0.966	-0.201 ca         1 UNL       0.000000
     94 C48        -1.329	 0.400	-0.205 ca         1 UNL       0.000000
     95 C49        -0.350	 1.379	-0.206 ca         1 UNL       0.000000
     96 H40         0.607	-2.440	-0.173 ha         1 UNL       0.000000
     97 H41        -0.609	 2.433	-0.194 ha         1 UNL       0.000000
     98 C50        -2.227	-1.712	-0.179 cd         1 UNL       0.000000
     99 C51        -2.852	 0.589	-0.170 c3         1 UNL       0.000000
    100 C52        -3.299	-0.861	-0.147 cc         1 UNL       0.000000
    101 S2         -2.643	-3.395	-0.181 ss         1 UNL       0.000000
    102 C53        -4.334	-2.955	-0.131 cd         1 UNL       0.000000
    103 C54        -4.524	-1.570	-0.124 cc         1 UNL       0.000000
    104 C55        -3.214	 1.353	 1.111 ca         1 UNL       0.000000
    105 C56        -3.421	 1.245	-1.437 ca         1 UNL       0.000000
    106 C57        -2.704	 1.269	-2.633 ca         1 UNL       0.000000
    107 C58        -3.278	 1.783	-3.792 ca         1 UNL       0.000000
    108 C59        -4.579	 2.275	-3.773 ca         1 UNL       0.000000
    109 C60        -5.303	 2.250	-2.585 ca         1 UNL       0.000000
    110 C61        -4.728	 1.740	-1.427 ca         1 UNL       0.000000
    111 C62        -3.496	 0.676	 2.297 ca         1 UNL       0.000000
    112 C63        -3.748	 1.379	 3.472 ca         1 UNL       0.000000
    113 C64        -3.716	 2.769	 3.478 ca         1 UNL       0.000000
    114 C65        -3.431	 3.453	 2.299 ca         1 UNL       0.000000
    115 C66        -3.184	 2.750	 1.126 ca         1 UNL       0.000000
    116 C67        -3.998	 3.545	 4.777 c3         1 UNL       0.000000
    117 C68        -5.454	 4.048	 4.769 c3         1 UNL       0.000000
    118 H42        -3.848	 2.900	 5.618 hc         1 UNL       0.000000
    119 H43        -3.332	 4.380	 4.846 hc         1 UNL       0.000000
    120 C69        -5.722	 4.865	 6.047 c3         1 UNL       0.000000
    121 H44        -6.120	 3.212	 4.734 hc         1 UNL       0.000000
    122 H45        -5.612	 4.667	 3.911 hc         1 UNL       0.000000
    123 C70        -7.181	 5.358	 6.045 c3         1 UNL       0.000000
    124 H46        -5.555	 4.248	 6.906 hc         1 UNL       0.000000
    125 H47        -5.061	 5.706	 6.078 hc         1 UNL       0.000000
    126 C71        -7.423	 6.249	 7.277 c3         1 UNL       0.000000
    127 H48        -7.841	 4.517	 6.077 hc         1 UNL       0.000000
    128 H49        -7.365	 5.922	 5.155 hc         1 UNL       0.000000
    129 C72        -8.892	 6.712	 7.295 c3         1 UNL       0.000000
    130 H50        -7.214	 5.692	 8.167 hc         1 UNL       0.000000
    131 H51        -6.781	 7.103	 7.232 hc         1 UNL       0.000000
    132 H52        -9.534	 5.859	 7.373 hc         1 UNL       0.000000
    133 H53        -9.053	 7.357	 8.133 hc         1 UNL       0.000000
    134 H54        -9.110	 7.240	 6.391 hc         1 UNL       0.000000
    135 C73        -5.213	 2.842	-5.057 c3         1 UNL       0.000000
    136 C74        -6.503	 3.604	-4.700 c3         1 UNL       0.000000
    137 H55        -4.524	 3.510	-5.530 hc         1 UNL       0.000000
    138 H56        -5.446	 2.039	-5.725 hc         1 UNL       0.000000
    139 C75        -7.020	 4.349	-5.944 c3         1 UNL       0.000000
    140 H57        -7.245	 2.910	-4.365 hc         1 UNL       0.000000
    141 H58        -6.297	 4.309	-3.921 hc         1 UNL       0.000000
    142 C76        -8.348	 5.052	-5.605 c3         1 UNL       0.000000
    143 H59        -7.179	 3.650	-6.738 hc         1 UNL       0.000000
    144 H60        -6.299	 5.078	-6.249 hc         1 UNL       0.000000
    145 C77        -8.789	 5.918	-6.800 c3         1 UNL       0.000000
    146 H61        -9.099	 4.317	-5.402 hc         1 UNL       0.000000
    147 H62        -8.214	 5.673	-4.744 hc         1 UNL       0.000000
    148 C78       -10.146	 6.575	-6.484 c3         1 UNL       0.000000
    149 H63        -8.884	 5.304	-7.671 hc         1 UNL       0.000000
    150 H64        -8.058	 6.679	-6.978 hc         1 UNL       0.000000
    151 H65       -10.424	 7.224	-7.288 hc         1 UNL       0.000000
    152 H66       -10.891	 5.815	-6.366 hc         1 UNL       0.000000
    153 H67       -10.067	 7.141	-5.580 hc         1 UNL       0.000000
    154 H68        -1.690	 0.883	-2.664 ha         1 UNL       0.000000
    155 H69        -2.705	 1.796	-4.714 ha         1 UNL       0.000000
    156 H70        -6.320	 2.626	-2.556 ha         1 UNL       0.000000
    157 H71        -5.297	 1.740	-0.503 ha         1 UNL       0.000000
    158 H72        -2.982	 3.293	 0.207 ha         1 UNL       0.000000
    159 H73        -3.517	-0.409	 2.308 ha         1 UNL       0.000000
    160 H74        -3.408	 4.538	 2.290 ha         1 UNL       0.000000
    161 H75        -3.972	 0.835	 4.383 ha         1 UNL       0.000000
    162 S3         -6.190	-1.141	-0.062 ss         1 UNL       0.000000
    163 C79        -6.649	-2.843	-0.046 cc         1 UNL       0.000000
    164 C80        -5.534	-3.674	-0.090 cd         1 UNL       0.000000
    165 H76        -5.619	-4.755	-0.090 ha         1 UNL       0.000000
    166 C81        -7.950	-3.430	-0.002 ce         1 UNL       0.000000
    167 C82        -9.219	-2.929	 0.045 cd         1 UNL       0.000000
    168 H77        -7.867	-4.511	-0.007 ha         1 UNL       0.000000
    169 C83        -9.589	-1.494	 0.062 c          1 UNL       0.000000
    170 C84       -11.067	-1.439	 0.120 ca         1 UNL       0.000000
    171 C85       -11.589	-2.736	 0.135 ca         1 UNL       0.000000
    172 C86       -10.466	-3.710	 0.088 cd         1 UNL       0.000000
    173 O1         -8.843	-0.534	 0.036 o          1 UNL       0.000000
    174 C87       -10.614	-5.073	 0.086 ce         1 UNL       0.000000
    175 C88        -9.523	-5.998	 0.044 cg         1 UNL       0.000000
    176 C89       -11.887	-5.726	 0.128 cg         1 UNL       0.000000
    177 N2         -8.654	-6.767	 0.012 n1         1 UNL       0.000000
    178 N3        -12.899	-6.294	 0.162 n1         1 UNL       0.000000
    179 C90       -12.973	-2.911	 0.193 ca         1 UNL       0.000000
    180 C91       -13.783	-1.778	 0.235 ca         1 UNL       0.000000
    181 C92       -13.245	-0.490	 0.220 ca         1 UNL       0.000000
    182 C93       -11.867	-0.310	 0.162 ca         1 UNL       0.000000
    183 H78       -13.432	-3.889	 0.208 ha         1 UNL       0.000000
    184 H79       -14.859	-1.906	 0.283 ha         1 UNL       0.000000
    185 H80       -13.907	 0.369	 0.256 ha         1 UNL       0.000000
    186 H81       -11.411	 0.675	 0.150 ha         1 UNL       0.000000
@<TRIPOS>BOND
     1     1     2 ar
     2     2     3 ar
     3     2     4 1
     4     3     5 ar
     5     3     6 1
     6     5     7 ar
     7     7     8 ar
     8     8     1 ar
     9     8     9 1
    10     1    10 1
    11     7    11 1
    12    11    12 1
    13    12    13 1
    14    13     5 1
    15    13    14 2
    16    11    15 2
    17    15    16 1
    18    15    17 1
    19    18    16 3
    20    19    17 3
    21    12    20 2
    22    20    21 1
    23    20    22 1
    24    21    23 1
    25    23    24 1
    26    24    25 2
    27    21    26 2
    28    26    25 1
    29    26    27 1
    30    24    28 1
    31    25    29 1
    32    29    30 1
    33    28    30 2
    34    28    31 1
    35    31    32 1
    36    30    33 1
    37    32    33 ar
    38    31    34 1
    39    31    35 1
    40    35    36 ar
    41    36    37 ar
    42    37    38 ar
    43    38    39 ar
    44    34    40 ar
    45    40    41 ar
    46    41    42 ar
    47    42    43 ar
    48    43    44 ar
    49    44    34 ar
    50    39    45 ar
    51    45    35 ar
    52    40    46 1
    53    39    47 1
    54    45    48 1
    55    37    49 1
    56    36    50 1
    57    41    51 1
    58    43    52 1
    59    44    53 1
    60    38    54 1
    61    54    55 1
    62    54    56 1
    63    54    57 1
    64    55    58 1
    65    55    59 1
    66    55    60 1
    67    58    61 1
    68    58    62 1
    69    58    63 1
    70    61    64 1
    71    61    65 1
    72    61    66 1
    73    64    67 1
    74    64    68 1
    75    64    69 1
    76    67    70 1
    77    67    71 1
    78    67    72 1
    79    42    73 1
    80    73    74 1
    81    73    75 1
    82    73    76 1
    83    74    77 1
    84    74    78 1
    85    74    79 1
    86    77    80 1
    87    77    81 1
    88    77    82 1
    89    80    83 1
    90    80    84 1
    91    80    85 1
    92    83    86 1
    93    83    87 1
    94    83    88 1
    95    86    89 1
    96    86    90 1
    97    86    91 1
    98    32    92 ar
    99    92    93 ar
   100    93    94 ar
   101    94    95 ar
   102    95    33 ar
   103    92    96 1
   104    95    97 1
   105    93    98 1
   106    94    99 1
   107    99   100 1
   108   100    98 2
   109    98   101 1
   110   101   102 1
   111   102   103 2
   112   100   103 1
   113    99   104 1
   114    99   105 1
   115   105   106 ar
   116   106   107 ar
   117   107   108 ar
   118   108   109 ar
   119   109   110 ar
   120   110   105 ar
   121   104   111 ar
   122   111   112 ar
   123   112   113 ar
   124   113   114 ar
   125   114   115 ar
   126   115   104 ar
   127   113   116 1
   128   116   117 1
   129   116   118 1
   130   116   119 1
   131   117   120 1
   132   117   121 1
   133   117   122 1
   134   120   123 1
   135   120   124 1
   136   120   125 1
   137   123   126 1
   138   123   127 1
   139   123   128 1
   140   126   129 1
   141   126   130 1
   142   126   131 1
   143   129   132 1
   144   129   133 1
   145   129   134 1
   146   108   135 1
   147   135   136 1
   148   135   137 1
   149   135   138 1
   150   136   139 1
   151   136   140 1
   152   136   141 1
   153   139   142 1
   154   139   143 1
   155   139   144 1
   156   142   145 1
   157   142   146 1
   158   142   147 1
   159   145   148 1
   160   145   149 1
   161   145   150 1
   162   148   151 1
   163   148   152 1
   164   148   153 1
   165   106   154 1
   166   107   155 1
   167   109   156 1
   168   110   157 1
   169   115   158 1
   170   111   159 1
   171   112   161 1
   172   114   160 1
   173   103   162 1
   174   162   163 1
   175   163   164 2
   176   164   102 1
   177   164   165 1
   178   163   166 1
   179   166   167 2
   180   166   168 1
   181   167   169 1
   182   169   170 1
   183   170   171 ar
   184   171   172 1
   185   172   167 1
   186   173   169 2
   187   172   174 2
   188   174   175 1
   189   174   176 1
   190   177   175 3
   191   178   176 3
   192   171   179 ar
   193   179   180 ar
   194   180   181 ar
   195   181   182 ar
   196   182   170 ar
   197   179   183 1
   198   180   184 1
   199   181   185 1
   200   182   186 1
@<TRIPOS>SUBSTRUCTURE
     1 UNL         1 TEMP              0 ****  ****    0 ROOT
