@<TRIPOS>MOLECULE
RES
187 198 1 0 1
SMALL
NO_CHARGES
@<TRIPOS>CRYSIN
   34.1878    26.6704    24.9108    90.0000    90.0000    90.0000  1  1
@<TRIPOS>ATOM
       1 C            0.9863    -0.0501    -0.0700 C             1 RES     
       2 C            2.5006    -0.0542    -0.0729 C             1 RES     
       3 C            3.0181    -1.2240    -0.8924 C             1 RES     
       4 C            4.5332    -1.2284    -0.8956 C             1 RES     
       5 C            5.0350    -2.3976    -1.7147 C             1 RES     
       6 C            6.5421    -2.3898    -1.7083 C             1 RES     
       7 C            7.0448    -3.5540    -2.5176 C             1 RES     
       8 C            8.5449    -3.5103    -2.4653 C             1 RES     
       9 C            9.0697    -4.6736    -3.2297 C             1 RES     
      10 C           10.5799    -4.6301    -3.1041 C             1 RES     
      11 C           11.0437    -5.8381    -3.8201 C             1 RES     
      12 C           12.4685    -5.9371    -4.0810 C             1 RES     
      13 C           13.0578    -5.9629    -5.3256 C             1 RES     
      14 S           14.6426    -6.5598    -5.2406 S             1 RES     
      15 C           14.7025    -6.2634    -3.5501 C             1 RES     
      16 C           13.5007    -5.8031    -3.0783 C             1 RES     
      17 S           14.1747    -4.5037    -2.0960 S             1 RES     
      18 C           15.8071    -4.3902    -3.3311 C             1 RES     
      19 C           15.8264    -5.6636    -2.7485 C             1 RES     
      20 N           17.1915    -5.9456    -2.7317 N             1 RES     
      21 C           17.5418    -6.0966    -4.0211 C             1 RES     
      22 C           16.7881    -5.0022    -4.4562 C             1 RES     
      23 C           17.0269    -4.7181    -5.8225 C             1 RES     
      24 N           16.6242    -3.5817    -6.3693 N             1 RES     
      25 S           17.1855    -3.7601    -7.9546 S             1 RES     
      26 N           18.0093    -5.2636    -7.9153 N             1 RES     
      27 C           17.8604    -5.6873    -6.6648 C             1 RES     
      28 C           18.5442    -6.9047    -6.0528 C             1 RES     
      29 C           18.4335    -7.0628    -4.6882 C             1 RES     
      30 N           19.1659    -8.3216    -4.2628 N             1 RES     
      31 C           19.7867    -8.7764    -5.4543 C             1 RES     
      32 C           19.3849    -7.9562    -6.5662 C             1 RES     
      33 S           20.1352    -8.7892    -7.9214 S             1 RES     
      34 C           20.5566   -10.2654    -7.0427 C             1 RES     
      35 C           20.7791    -9.7535    -5.8007 C             1 RES     
      36 S           22.1467   -10.6313    -5.1897 S             1 RES     
      37 C           20.9882   -12.0419    -5.1861 C             1 RES     
      38 C           21.1065   -11.6536    -6.8939 C             1 RES     
      39 C           22.1834   -12.0299    -8.2156 C             1 RES     
      40 C           22.5878   -11.8865    -9.8333 C             1 RES     
      41 C           23.4965   -13.1889   -10.0678 C             1 RES     
      42 C           24.1058   -13.5487   -11.4388 C             1 RES     
      43 C           24.8867   -14.8864   -11.3502 C             1 RES     
      44 C           25.4971   -15.2803   -12.6952 C             1 RES     
      45 C           26.2592   -16.5990   -12.5905 C             1 RES     
      46 C           26.8595   -16.9746   -13.9397 C             1 RES     
      47 C           27.6192   -18.2889   -13.8360 C             1 RES     
      48 C           28.2202   -18.6666   -15.1830 C             1 RES     
      49 C           28.9759   -19.9764   -15.0747 C             1 RES     
      50 C           21.4309   -13.0534    -3.8001 C             1 RES     
      51 C           21.3140   -13.4864    -2.3412 C             1 RES     
      52 C           22.2206   -14.6940    -1.5652 C             1 RES     
      53 C           22.8561   -15.7704    -2.0645 C             1 RES     
      54 C           23.4476   -17.0304    -1.4537 C             1 RES     
      55 N           23.9383   -18.0756    -0.9470 N             1 RES     
      56 C           23.1480   -15.7013    -3.4856 C             1 RES     
      57 N           23.3938   -15.5605    -4.5796 N             1 RES     
      58 C           22.0938   -14.8233    -0.0832 C             1 RES     
      59 C           23.0337   -15.4180     0.8267 C             1 RES     
      60 C           22.7475   -15.6789     2.1576 C             1 RES     
      61 C           21.4710   -15.4187     2.5931 C             1 RES     
      62 C           20.5334   -14.7446     1.7089 C             1 RES     
      63 C           20.9040   -14.3080     0.3555 C             1 RES     
      64 C           20.4791   -13.2012    -0.8653 C             1 RES     
      65 O           19.8736   -12.1583    -0.6807 O             1 RES     
      66 F           21.1665   -15.7378     3.8687 F             1 RES     
      67 F           23.7111   -16.1476     2.9701 F             1 RES     
      68 C           19.0186    -9.1203    -2.9415 C             1 RES     
      69 C           18.0248    -8.5560    -1.8629 C             1 RES     
      70 C           16.5339    -8.7187    -2.2446 C             1 RES     
      71 C           16.3025    -8.7214    -3.7103 C             1 RES     
      72 C           18.0517    -8.7476    -0.3244 C             1 RES     
      73 C           17.2189    -7.7059     0.5341 C             1 RES     
      74 C           17.0975    -8.1529     1.9742 C             1 RES     
      75 C           16.2815    -7.1529     2.7815 C             1 RES     
      76 C           18.1883    -5.4591    -1.7766 C             1 RES     
      77 C           19.6416    -5.5424    -2.3355 C             1 RES     
      78 C           20.0669    -4.2980    -3.1510 C             1 RES     
      79 C           19.2537    -3.9499    -4.3264 C             1 RES     
      80 C           20.6493    -5.8003    -1.2391 C             1 RES     
      81 C           22.0271    -5.9115    -1.8794 C             1 RES     
      82 C           23.0880    -5.9130    -0.8234 C             1 RES     
      83 C           24.4412    -5.8908    -1.4975 C             1 RES     
      84 C           12.7144    -5.7942    -6.6681 C             1 RES     
      85 C           11.5308    -5.7896    -7.2700 C             1 RES     
      86 C           11.3985    -5.9696    -8.6684 C             1 RES     
      87 C           12.3267    -5.9921    -9.5856 C             1 RES     
      88 C           11.9054    -6.0108   -11.0460 C             1 RES     
      89 N           11.5560    -6.0263   -12.2575 N             1 RES     
      90 C           13.7618    -5.9657    -9.4637 C             1 RES     
      91 N           14.8836    -5.9689    -9.3546 N             1 RES     
      92 C           10.0155    -6.1628    -9.0413 C             1 RES     
      93 C            9.4743    -6.9596   -10.0333 C             1 RES     
      94 C            8.1256    -6.9064   -10.2532 C             1 RES     
      95 C            7.3492    -6.0757    -9.4587 C             1 RES     
      96 C            7.8884    -5.4566    -8.3083 C             1 RES     
      97 C            9.2394    -5.6399    -8.0398 C             1 RES     
      98 C           10.1150    -5.9888    -6.8526 C             1 RES     
      99 O            9.8595    -6.9163    -6.0941 O             1 RES     
     100 F            6.0588    -5.9128    -9.7751 F             1 RES     
     101 F            7.6104    -7.6472   -11.2399 F             1 RES     
     102 H            0.6122     0.7906     0.5188 H             1 RES     
     103 H            0.5996    -0.9781     0.3631 H             1 RES     
     104 H            0.5996     0.0399    -1.0902 H             1 RES     
     105 H            2.8734    -0.1256     0.9555 H             1 RES     
     106 H            2.8734     0.8880    -0.4914 H             1 RES     
     107 H            2.6478    -1.1560    -1.9228 H             1 RES     
     108 H            2.6478    -2.1692    -0.4763 H             1 RES     
     109 H            4.9145    -1.3037     0.1304 H             1 RES     
     110 H            4.9145    -0.2899    -1.3167 H             1 RES     
     111 H            4.6674    -2.3291    -2.7458 H             1 RES     
     112 H            4.6668    -3.3430    -1.2978 H             1 RES     
     113 H            6.9227    -2.4638    -0.6817 H             1 RES     
     114 H            6.9252    -1.4528    -2.1316 H             1 RES     
     115 H            6.6941    -3.4910    -3.5559 H             1 RES     
     116 H            6.6789    -4.5040    -2.1078 H             1 RES     
     117 H            8.9073    -3.5684    -1.4331 H             1 RES     
     118 H            8.9252    -2.5819    -2.9088 H             1 RES     
     119 H            8.7345    -4.6019    -4.2774 H             1 RES     
     120 H            8.6761    -5.6254    -2.8474 H             1 RES     
     121 H           10.9264    -4.6405    -2.0712 H             1 RES     
     122 H           10.9655    -3.7311    -3.6066 H             1 RES     
     123 H           10.5357    -5.6435    -4.7401 H             1 RES     
     124 H           10.6486    -6.7878    -3.4432 H             1 RES     
     125 H           21.6864   -12.9779    -8.3554 H             1 RES     
     126 H           23.1864   -11.8726    -7.8076 H             1 RES     
     127 H           23.2383   -11.0343   -10.1295 H             1 RES     
     128 H           21.7784   -11.9170   -10.5797 H             1 RES     
     129 H           22.8803   -14.0443    -9.7705 H             1 RES     
     130 H           24.3339   -13.1366    -9.3591 H             1 RES     
     131 H           24.7979   -12.7709   -11.7793 H             1 RES     
     132 H           23.3213   -13.6594   -12.1944 H             1 RES     
     133 H           24.2205   -15.6920   -11.0136 H             1 RES     
     134 H           25.6896   -14.8093   -10.6049 H             1 RES     
     135 H           26.1799   -14.4940   -13.0381 H             1 RES     
     136 H           24.7059   -15.3784   -13.4479 H             1 RES     
     137 H           25.5854   -17.3965   -12.2533 H             1 RES     
     138 H           27.0583   -16.5128   -11.8439 H             1 RES     
     139 H           27.5367   -16.1813   -14.2791 H             1 RES     
     140 H           26.0632   -17.0653   -14.6886 H             1 RES     
     141 H           26.9419   -19.0819   -13.4953 H             1 RES     
     142 H           28.4147   -18.1983   -13.0860 H             1 RES     
     143 H           28.8998   -17.8767   -15.5236 H             1 RES     
     144 H           27.4263   -18.7607   -15.9332 H             1 RES     
     145 H           29.7874   -19.8945   -14.3445 H             1 RES     
     146 H           29.4070   -20.2467   -16.0421 H             1 RES     
     147 H           28.3073   -20.7824   -14.7559 H             1 RES     
     148 H           22.2514   -13.5606    -4.2468 H             1 RES     
     149 H           24.0430   -15.6790     0.5219 H             1 RES     
     150 H           19.5474   -14.6508     2.1717 H             1 RES     
     151 H           20.0277    -9.1366    -2.5166 H             1 RES     
     152 H           18.6783   -10.1358    -3.1699 H             1 RES     
     153 H           18.4552    -7.5915    -1.9063 H             1 RES     
     154 H           15.9955    -7.8807    -1.7758 H             1 RES     
     155 H           16.0492    -9.6018    -1.8657 H             1 RES     
     156 H           16.7852    -7.8242    -3.7850 H             1 RES     
     157 H           15.3459    -8.4220    -4.0674 H             1 RES     
     158 H           16.8720    -9.2236    -4.4839 H             1 RES     
     159 H           19.0785    -8.7270     0.0444 H             1 RES     
     160 H           17.6156    -9.7287    -0.1410 H             1 RES     
     161 H           16.2075    -7.5279     0.1480 H             1 RES     
     162 H           17.6903    -6.7210     0.6176 H             1 RES     
     163 H           18.1037    -8.2323     2.3968 H             1 RES     
     164 H           16.6194    -9.1336     1.9969 H             1 RES     
     165 H           16.7473    -6.1603     2.7794 H             1 RES     
     166 H           16.2033    -7.4931     3.8164 H             1 RES     
     167 H           15.2706    -7.0464     2.3726 H             1 RES     
     168 H           18.0537    -6.1456    -0.9731 H             1 RES     
     169 H           17.9415    -4.5064    -1.3107 H             1 RES     
     170 H           19.7833    -6.4214    -2.9613 H             1 RES     
     171 H           21.0294    -4.4483    -3.6242 H             1 RES     
     172 H           20.0199    -3.4525    -2.4770 H             1 RES     
     173 H           19.3519    -4.8109    -4.9803 H             1 RES     
     174 H           19.4268    -3.1153    -4.9933 H             1 RES     
     175 H           18.3156    -3.6888    -3.8615 H             1 RES     
     176 H           20.4331    -6.7305    -0.6960 H             1 RES     
     177 H           20.5860    -4.9715    -0.5336 H             1 RES     
     178 H           22.2563    -5.0453    -2.4984 H             1 RES     
     179 H           22.0856    -6.7872    -2.5424 H             1 RES     
     180 H           22.9676    -6.7932    -0.1904 H             1 RES     
     181 H           22.9639    -5.0147    -0.2077 H             1 RES     
     182 H           24.5667    -6.7718    -2.1349 H             1 RES     
     183 H           25.2238    -5.8774    -0.7404 H             1 RES     
     184 H           24.5499    -5.0011    -2.1305 H             1 RES     
     185 H           13.6098    -5.7981    -7.2824 H             1 RES     
     186 H           10.0816    -7.6371   -10.6188 H             1 RES     
     187 H            7.2519    -4.7710    -7.7606 H             1 RES     
@<TRIPOS>BOND
       1        8      118 1
       2        4        5 1
       3       15       16 1
       4       24       25 1
       5       36       37 1
       6       39      126 1
       7       45       46 1
       8       77       78 1
       9       98       99 1
      10       20       76 1
      11       79      175 1
      12       12       16 1
      13       44      135 1
      14       81      179 1
      15       21       29 1
      16       40      127 1
      17       18       19 1
      18       30       68 1
      19       39       40 1
      20       71      156 1
      21       42      131 1
      22       83      184 1
      23       87       88 1
      24       92       93 1
      25        5      112 1
      26       10       11 1
      27       45      138 1
      28       51       64 1
      29       58       63 1
      30       18       22 1
      31       66       61 1
      32       75      165 1
      33       11       12 1
      34       32       33 1
      35       53       54 1
      36       69       70 1
      37       90       91 1
      38       68      151 1
      39       15       19 1
      40       68      152 1
      41       40      128 1
      42        6        7 1
      43       84      185 1
      44       88       89 1
      45        7      116 1
      46       28       32 1
      47       48      144 1
      48        8      117 1
      49       45      137 1
      50       73      162 1
      51       71      158 1
      52       83      182 1
      53        1      102 1
      54       96      187 1
      55       11      123 1
      56       20       21 1
      57       31       32 1
      58       41       42 1
      59       52       53 1
      60       82       83 1
      61       43      134 1
      62       76      168 1
      63       70      154 1
      64       16       17 1
      65       21       22 1
      66       26       27 1
      67       37       38 1
      68       42       43 1
      69       47       48 1
      70       58       59 1
      71       87       90 1
      72       79      174 1
      73       44      136 1
      74       74      163 1
      75       95      100 1
      76        1        2 1
      77       50      148 1
      78       69      153 1
      79        4      109 1
      80        7        8 1
      81       19       20 1
      82       40       41 1
      83       72       73 1
      84       77      170 1
      85       86       87 1
      86       93       94 1
      87       42      132 1
      88       53       56 1
      89       17       18 1
      90       38       39 1
      91       75      167 1
      92       33       34 1
      93        9       10 1
      94       10      122 1
      95       12       13 1
      96       22       23 1
      97       43       44 1
      98       54       55 1
      99       62       61 1
     100       73      161 1
     101       80       81 1
     102       79      173 1
     103       46      139 1
     104        9      119 1
     105       94      101 1
     106       41      130 1
     107       27       28 1
     108       48       49 1
     109       60       61 1
     110       68       69 1
     111       39      125 1
     112       78      171 1
     113       86       92 1
     114       49      146 1
     115        2      105 1
     116       81       82 1
     117       71      157 1
     118       83      183 1
     119        3      107 1
     120       13       14 1
     121       29       30 1
     122       34       35 1
     123       10      121 1
     124       50       51 1
     125       31       35 1
     126       49      147 1
     127        6      114 1
     128       92       97 1
     129       34       38 1
     130        1      103 1
     131       43      133 1
     132       46      140 1
     133       93      186 1
     134       69       72 1
     135       77       80 1
     136        2        3 1
     137       78      172 1
     138       74      164 1
     139       25       26 1
     140       46       47 1
     141       70       71 1
     142       70      155 1
     143       47      142 1
     144       78       79 1
     145       80      176 1
     146       81      178 1
     147       76      169 1
     148       72      159 1
     149       82      181 1
     150       48      143 1
     151       75      166 1
     152        8        9 1
     153       64       65 1
     154       73       74 1
     155       85       86 1
     156       49      145 1
     157       52       58 1
     158       94       95 1
     159        5      111 1
     160        3      108 1
     161       11      124 1
     162        9      120 1
     163        5        6 1
     164       41      129 1
     165       63       64 1
     166       74       75 1
     167       84       85 1
     168       95       96 1
     169       47      141 1
     170       23       27 1
     171       59      149 1
     172        3        4 1
     173       14       15 1
     174       23       24 1
     175       28       29 1
     176       13       84 1
     177       35       36 1
     178       44       45 1
     179       56       57 1
     180       76       77 1
     181       97       98 1
     182       62      150 1
     183       85       98 1
     184        6      113 1
     185       59       60 1
     186       60       67 1
     187        1      104 1
     188       37       50 1
     189       80      177 1
     190       30       31 1
     191       51       52 1
     192       62       63 1
     193       96       97 1
     194        4      110 1
     195        2      106 1
     196       72      160 1
     197       82      180 1
     198        7      115 1
@<TRIPOS>SUBSTRUCTURE
       1 RES             1 RESIDUE    0 **** ROOT      0
