@<TRIPOS>MOLECULE
RES
187 198 1 0 1
SMALL
NO_CHARGES
@<TRIPOS>CRYSIN
   34.1935    25.0959    22.6133    90.0000    90.0000    90.0000  1  1
@<TRIPOS>ATOM
       1 C            1.0632     0.0758    -0.0078 C             1 RES     
       2 C            2.5778     0.0705    -0.0074 C             1 RES     
       3 C            3.0966    -1.3547     0.0890 C             1 RES     
       4 C            4.6131    -1.3617     0.0895 C             1 RES     
       5 C            5.1162    -2.7871     0.1860 C             1 RES     
       6 C            6.6255    -2.7883     0.1860 C             1 RES     
       7 C            7.1221    -4.2105     0.2822 C             1 RES     
       8 C            8.6222    -4.1619     0.2792 C             1 RES     
       9 C            9.1738    -5.5442     0.3736 C             1 RES     
      10 C           10.6807    -5.3766     0.3630 C             1 RES     
      11 C           11.1926    -6.7567     0.4463 C             1 RES     
      12 C           12.6066    -7.0019     0.5158 C             1 RES     
      13 C           13.1471    -8.2758     0.5416 C             1 RES     
      14 S           14.7639    -8.1901     1.0497 S             1 RES     
      15 C           14.8241    -6.4946     0.7927 C             1 RES     
      16 C           13.6280    -6.0000     0.3795 C             1 RES     
      17 S           14.2712    -4.9385    -0.8667 S             1 RES     
      18 C           15.8959    -6.1977    -1.0625 C             1 RES     
      19 C           15.9260    -5.6577     0.2248 C             1 RES     
      20 N           17.2888    -5.6362     0.4896 N             1 RES     
      21 C           17.6420    -6.9213     0.6344 C             1 RES     
      22 C           16.8891    -7.3443    -0.4677 C             1 RES     
      23 C           17.1000    -8.7200    -0.7445 C             1 RES     
      24 N           16.6281    -9.2853    -1.8443 N             1 RES     
      25 S           17.2874   -10.8390    -1.7255 S             1 RES     
      26 N           18.1339   -10.7997    -0.2329 N             1 RES     
      27 C           17.9568    -9.5596     0.2114 C             1 RES     
      28 C           18.6332    -8.9496     1.4391 C             1 RES     
      29 C           18.5225    -7.5891     1.6074 C             1 RES     
      30 N           19.2467    -7.1731     2.8815 N             1 RES     
      31 C           19.8698    -8.3692     3.3340 C             1 RES     
      32 C           19.4667    -9.4691     2.4916 C             1 RES     
      33 S           20.2129   -10.8404     3.2970 S             1 RES     
      34 C           20.6519    -9.9892     4.7766 C             1 RES     
      35 C           20.8927    -8.7424     4.2869 C             1 RES     
      36 S           22.2554    -8.1666     5.2309 S             1 RES     
      37 C           21.0233    -8.0981     6.5524 C             1 RES     
      38 C           21.1735    -9.8192     6.1724 C             1 RES     
      39 C           22.2598   -11.1394     6.5538 C             1 RES     
      40 C           22.6697   -12.7619     6.4051 C             1 RES     
      41 C           23.5771   -12.9950     7.7083 C             1 RES     
      42 C           24.1874   -14.3665     8.0640 C             1 RES     
      43 C           24.9681   -14.2831     9.4014 C             1 RES     
      44 C           25.5787   -15.6298     9.7884 C             1 RES     
      45 C           26.3409   -15.5306    11.1071 C             1 RES     
      46 C           26.9415   -16.8810    11.4762 C             1 RES     
      47 C           27.7014   -16.7824    12.7905 C             1 RES     
      48 C           28.3028   -18.1309    13.1620 C             1 RES     
      49 C           29.0588   -18.0277    14.4719 C             1 RES     
      50 C           21.4641    -6.6957     7.5503 C             1 RES     
      51 C           21.3736    -5.2444     8.0224 C             1 RES     
      52 C           22.2900    -4.4699     9.2573 C             1 RES     
      53 C           22.9335    -5.0021    10.3240 C             1 RES     
      54 C           23.5251    -4.3965    11.5864 C             1 RES     
      55 N           24.0159    -3.8941    12.6337 N             1 RES     
      56 C           23.1587    -6.4719    10.0085 C             1 RES     
      57 N           23.3455    -7.6911     9.7467 N             1 RES     
      58 C           22.1398    -2.9960     9.3994 C             1 RES     
      59 C           23.0552    -2.0724    10.0102 C             1 RES     
      60 C           22.7329    -0.7499    10.2723 C             1 RES     
      61 C           21.4466    -0.3467    10.0043 C             1 RES     
      62 C           20.5358    -1.2487     9.3191 C             1 RES     
      63 C           20.9429    -2.5832     8.8738 C             1 RES     
      64 C           20.5403    -3.7967     7.7518 C             1 RES     
      65 O           19.9444    -3.6190     6.7023 O             1 RES     
      66 F           21.1052     0.9182    10.3273 F             1 RES     
      67 F           23.6697     0.0882    10.7506 F             1 RES     
      68 C           19.0928    -5.8514     3.6744 C             1 RES     
      69 C           18.1020    -4.7756     3.1031 C             1 RES     
      70 C           16.6106    -5.1623     3.2526 C             1 RES     
      71 C           16.3744    -6.6284     3.2429 C             1 RES     
      72 C           18.1233    -3.2376     3.3033 C             1 RES     
      73 C           17.2911    -2.3726     2.2666 C             1 RES     
      74 C           17.1719    -0.9355     2.7226 C             1 RES     
      75 C           16.3549    -0.1228     1.7282 C             1 RES     
      76 C           18.2740    -4.6688     0.0189 C             1 RES     
      77 C           19.7219    -5.2324     0.1008 C             1 RES     
      78 C           20.1415    -6.0448    -1.1492 C             1 RES     
      79 C           19.3319    -7.2212    -1.5012 C             1 RES     
      80 C           20.7264    -4.1377     0.3612 C             1 RES     
      81 C           22.1020    -4.7800     0.4671 C             1 RES     
      82 C           23.1610    -3.7233     0.4718 C             1 RES     
      83 C           24.5143    -4.3961     0.4473 C             1 RES     
      84 C           12.7830    -9.6379     0.4422 C             1 RES     
      85 C           11.6506   -10.3255     0.3059 C             1 RES     
      86 C           11.5879   -11.7783     0.5000 C             1 RES     
      87 C           12.5355   -12.7475     0.5123 C             1 RES     
      88 C           12.1681   -14.0973     0.5117 C             1 RES     
      89 N           11.7318   -15.2175     0.5049 N             1 RES     
      90 C           13.9521   -12.4825     0.4862 C             1 RES     
      91 N           15.0515   -12.2161     0.4963 N             1 RES     
      92 C           10.1608   -12.0950     0.6332 C             1 RES     
      93 C            9.5772   -13.0213     1.4657 C             1 RES     
      94 C            8.2125   -13.2059     1.4167 C             1 RES     
      95 C            7.4314   -12.4329     0.5646 C             1 RES     
      96 C            7.9918   -11.3411    -0.1172 C             1 RES     
      97 C            9.3684   -11.1295     0.0387 C             1 RES     
      98 C           10.2079    -9.9037     0.1538 C             1 RES     
      99 O            9.7292    -8.8493     0.5077 O             1 RES     
     100 F            6.1235   -12.7073     0.4613 F             1 RES     
     101 F            7.6764   -14.1456     2.2023 F             1 RES     
     102 H            0.6889     1.0999    -0.0771 H             1 RES     
     103 H            0.6763    -0.3745     0.9119 H             1 RES     
     104 H            0.6763    -0.4944    -0.8584 H             1 RES     
     105 H            2.9501     0.6608     0.8380 H             1 RES     
     106 H            2.9501     0.5415    -0.9247 H             1 RES     
     107 H            2.7253    -1.9481    -0.7558 H             1 RES     
     108 H            2.7253    -1.8288     1.0061 H             1 RES     
     109 H            4.9931    -0.7756     0.9353 H             1 RES     
     110 H            4.9931    -0.8949    -0.8276 H             1 RES     
     111 H            4.7460    -3.3792    -0.6598 H             1 RES     
     112 H            4.7460    -3.2598     1.1038 H             1 RES     
     113 H            7.0088    -2.2027     1.0315 H             1 RES     
     114 H            7.0088    -2.3219    -0.7306 H             1 RES     
     115 H            6.7610    -4.8073    -0.5641 H             1 RES     
     116 H            6.7609    -4.6878     1.2013 H             1 RES     
     117 H            8.9922    -3.5739     1.1272 H             1 RES     
     118 H            8.9926    -3.6944    -0.6407 H             1 RES     
     119 H            8.8337    -6.1687    -0.4663 H             1 RES     
     120 H            8.8313    -6.0497     1.2893 H             1 RES     
     121 H           11.0226    -4.7843     1.2186 H             1 RES     
     122 H           11.0190    -4.9049    -0.5647 H             1 RES     
     123 H           10.8315    -7.2670    -0.4501 H             1 RES     
     124 H           10.8022    -7.1542     1.3935 H             1 RES     
     125 H           21.7489   -11.2883     7.4926 H             1 RES     
     126 H           23.2643   -10.7378     6.3862 H             1 RES     
     127 H           23.3240   -13.0581     5.5545 H             1 RES     
     128 H           21.8632   -13.5121     6.4350 H             1 RES     
     129 H           22.9591   -12.7002     8.5632 H             1 RES     
     130 H           24.4136   -12.2847     7.6586 H             1 RES     
     131 H           24.8797   -14.7040     7.2848 H             1 RES     
     132 H           23.4034   -15.1230     8.1718 H             1 RES     
     133 H           24.3020   -13.9505    10.2087 H             1 RES     
     134 H           25.7711   -13.5374     9.3273 H             1 RES     
     135 H           26.2612   -15.9691     9.0003 H             1 RES     
     136 H           24.7877   -16.3831     9.8833 H             1 RES     
     137 H           25.6672   -15.1970    11.9061 H             1 RES     
     138 H           27.1398   -14.7833    11.0237 H             1 RES     
     139 H           27.6187   -17.2167    10.6812 H             1 RES     
     140 H           26.1455   -17.6306    11.5639 H             1 RES     
     141 H           27.0242   -16.4455    13.5851 H             1 RES     
     142 H           28.4966   -16.0318    12.7028 H             1 RES     
     143 H           28.9823   -18.4676    12.3703 H             1 RES     
     144 H           27.5091   -18.8815    13.2530 H             1 RES     
     145 H           29.8698   -17.2967    14.3926 H             1 RES     
     146 H           29.4902   -18.9960    14.7379 H             1 RES     
     147 H           28.3901   -17.7125    15.2792 H             1 RES     
     148 H           22.2926    -7.1543     8.0120 H             1 RES     
     149 H           24.0696    -2.3542    10.2788 H             1 RES     
     150 H           19.5372    -0.8157     9.2257 H             1 RES     
     151 H           20.1000    -5.4229     3.6906 H             1 RES     
     152 H           18.7442    -6.0711     4.6881 H             1 RES     
     153 H           18.5474    -4.8119     2.1451 H             1 RES     
     154 H           16.0771    -4.6786     2.4201 H             1 RES     
     155 H           16.1244    -4.7978     4.1398 H             1 RES     
     156 H           16.8615    -6.6955     2.3485 H             1 RES     
     157 H           15.4224    -6.9912     2.9317 H             1 RES     
     158 H           16.9446    -7.4038     3.7401 H             1 RES     
     159 H           19.1493    -2.8658     3.2873 H             1 RES     
     160 H           17.6842    -3.0637     4.2845 H             1 RES     
     161 H           16.2785    -2.7551     2.0888 H             1 RES     
     162 H           17.7604    -2.2840     1.2808 H             1 RES     
     163 H           18.1785    -0.5141     2.8036 H             1 RES     
     164 H           16.6946    -0.9191     3.7038 H             1 RES     
     165 H           16.8198    -0.1198     0.7352 H             1 RES     
     166 H           16.2772     0.9100     2.0745 H             1 RES     
     167 H           15.3440    -0.5314     1.6206 H             1 RES     
     168 H           18.1259    -3.8761     0.7146 H             1 RES     
     169 H           18.0294    -4.1914    -0.9280 H             1 RES     
     170 H           19.8643    -5.8619     0.9779 H             1 RES     
     171 H           21.1038    -6.5175    -1.0029 H             1 RES     
     172 H           20.0820    -5.3663    -1.9899 H             1 RES     
     173 H           19.4367    -7.8742    -0.6404 H             1 RES     
     174 H           19.4796    -7.8965    -2.3341 H             1 RES     
     175 H           18.3994    -6.7464    -1.7635 H             1 RES     
     176 H           20.5108    -3.5975     1.2933 H             1 RES     
     177 H           20.6585    -3.4316    -0.4663 H             1 RES     
     178 H           22.3285    -5.3951    -0.4024 H             1 RES     
     179 H           22.1612    -5.4471     1.3397 H             1 RES     
     180 H           23.0396    -3.0941     1.3546 H             1 RES     
     181 H           23.0355    -3.1043    -0.4241 H             1 RES     
     182 H           24.6398    -5.0366     1.3260 H             1 RES     
     183 H           25.2957    -3.6379     0.4373 H             1 RES     
     184 H           24.6236    -5.0255    -0.4448 H             1 RES     
     185 H           13.6695   -10.2479     0.5436 H             1 RES     
     186 H           10.1698   -13.5737     2.1794 H             1 RES     
     187 H            7.3335   -10.7368    -0.7358 H             1 RES     
@<TRIPOS>BOND
       1        2        1 1
       2      102        1 1
       3      103        1 1
       4      104        1 1
       5        3        2 1
       6      105        2 1
       7      106        2 1
       8        4        3 1
       9      107        3 1
      10      108        3 1
      11        5        4 1
      12      109        4 1
      13      110        4 1
      14        6        5 1
      15      111        5 1
      16      112        5 1
      17        7        6 1
      18      113        6 1
      19      114        6 1
      20        8        7 1
      21      115        7 1
      22      116        7 1
      23        9        8 1
      24      117        8 1
      25      118        8 1
      26       10        9 1
      27      119        9 1
      28      120        9 1
      29       11       10 1
      30      121       10 1
      31      122       10 1
      32       12       11 1
      33      123       11 1
      34      124       11 1
      35       13       12 1
      36       16       12 1
      37       14       13 1
      38       84       13 1
      39       15       14 1
      40       16       15 1
      41       19       15 1
      42       17       16 1
      43       18       17 1
      44       19       18 1
      45       22       18 1
      46       20       19 1
      47       21       20 1
      48       76       20 1
      49       22       21 1
      50       29       21 1
      51       23       22 1
      52       24       23 1
      53       27       23 1
      54       25       24 1
      55       26       25 1
      56       27       26 1
      57       28       27 1
      58       29       28 1
      59       32       28 1
      60       30       29 1
      61       31       30 1
      62       68       30 1
      63       32       31 1
      64       35       31 1
      65       33       32 1
      66       34       33 1
      67       35       34 1
      68       38       34 1
      69       36       35 1
      70       37       36 1
      71       38       37 1
      72       50       37 1
      73       39       38 1
      74       40       39 1
      75      125       39 1
      76      126       39 1
      77       41       40 1
      78      127       40 1
      79      128       40 1
      80       42       41 1
      81      129       41 1
      82      130       41 1
      83       43       42 1
      84      131       42 1
      85      132       42 1
      86       44       43 1
      87      133       43 1
      88      134       43 1
      89       45       44 1
      90      135       44 1
      91      136       44 1
      92       46       45 1
      93      137       45 1
      94      138       45 1
      95       47       46 1
      96      139       46 1
      97      140       46 1
      98       48       47 1
      99      141       47 1
     100      142       47 1
     101       49       48 1
     102      143       48 1
     103      144       48 1
     104      145       49 1
     105      146       49 1
     106      147       49 1
     107       51       50 1
     108      148       50 1
     109       52       51 1
     110       64       51 1
     111       53       52 1
     112       58       52 1
     113       54       53 1
     114       56       53 1
     115       55       54 1
     116       57       56 1
     117       59       58 1
     118       63       58 1
     119       60       59 1
     120      149       59 1
     121       61       60 1
     122       67       60 1
     123       62       61 1
     124       66       61 1
     125       63       62 1
     126      150       62 1
     127       64       63 1
     128       65       64 1
     129       69       68 1
     130      151       68 1
     131      152       68 1
     132       70       69 1
     133       72       69 1
     134      153       69 1
     135       71       70 1
     136      154       70 1
     137      155       70 1
     138      156       71 1
     139      157       71 1
     140      158       71 1
     141       73       72 1
     142      159       72 1
     143      160       72 1
     144       74       73 1
     145      161       73 1
     146      162       73 1
     147       75       74 1
     148      163       74 1
     149      164       74 1
     150      165       75 1
     151      166       75 1
     152      167       75 1
     153       77       76 1
     154      168       76 1
     155      169       76 1
     156       78       77 1
     157       80       77 1
     158      170       77 1
     159       79       78 1
     160      171       78 1
     161      172       78 1
     162      173       79 1
     163      174       79 1
     164      175       79 1
     165       81       80 1
     166      176       80 1
     167      177       80 1
     168       82       81 1
     169      178       81 1
     170      179       81 1
     171       83       82 1
     172      180       82 1
     173      181       82 1
     174      182       83 1
     175      183       83 1
     176      184       83 1
     177       85       84 1
     178      185       84 1
     179       86       85 1
     180       98       85 1
     181       87       86 1
     182       92       86 1
     183       88       87 1
     184       90       87 1
     185       89       88 1
     186       91       90 1
     187       93       92 1
     188       97       92 1
     189       94       93 1
     190      186       93 1
     191       95       94 1
     192      101       94 1
     193       96       95 1
     194      100       95 1
     195       97       96 1
     196      187       96 1
     197       98       97 1
     198       99       98 1
@<TRIPOS>SUBSTRUCTURE
       1 RES             1 RESIDUE    0 **** ROOT      0
